OPT_V9/Results/My_campus_w_initial_sub_3_active_27_03_13_25/powerflow_results_t2.txt
Pandapower Network Debug Info
==================================================

BUS:
       vm_pu     va_degree      p_mw    q_mvar
0   1.008646  5.910180e-02 -0.005497 -0.005326
1   1.011974  1.358087e-01 -0.001973 -0.001329
2   1.014374  2.418483e-01 -0.002694  0.000000
3   1.010879  9.423551e-02 -0.002557 -0.001057
4   1.003112  1.964039e-01 -0.002103  0.000794
5   1.002943  9.780639e-02 -0.002400  0.000910
6   1.004810  6.948575e-02 -0.001063 -0.001401
7   1.003415 -1.811494e-02 -0.002953 -0.002770
8   1.001316  2.743453e-02 -0.004127 -0.002855
9   0.999948  6.937037e-04  0.008493  0.008514
10  0.999939  7.572867e-04  0.011241  0.009172
11  0.999936  8.357922e-04  0.002571  0.004806
12  0.999969 -1.701951e-04  0.009257  0.002823
13  0.999960 -1.849627e-04  0.006094  0.002996
14  0.999964 -1.357751e-04  0.003864  0.003087
15  0.999978  4.677052e-04  0.000000  0.000000
16  0.999978  4.636295e-04  0.000000  0.000000
17  0.999973 -8.310728e-05  0.000000  0.000000
18  0.999973 -8.585362e-05  0.000000  0.000000
19  1.000000  0.000000e+00 -0.009732 -0.019880
20  1.000000  2.561142e-06  0.000000  0.000000
21  1.000000  0.000000e+00 -0.006627 -0.008614
22  1.000000  9.473362e-07  0.000000  0.000000
--------------------------------------------------

LINE:
    p_from_mw   q_from_mvar   p_to_mw  q_to_mvar         pl_mw       ql_mvar  i_from_ka   i_to_ka      i_ka  vm_from_pu  va_from_degree  vm_to_pu  va_to_degree  loading_percent
0    0.009722  1.588015e-02 -0.009722  -0.015880  3.391187e-07  2.644164e-07   0.000717  0.000717  0.000717    1.000000    2.561142e-06  0.999978      0.000468         0.311600
1    0.006617  4.613661e-03 -0.006616  -0.004614  1.750153e-07  1.364623e-07   0.000310  0.000310  0.000310    1.000000    9.473362e-07  0.999973     -0.000083         0.134987
2    0.022306  2.249317e-02 -0.022306  -0.022493  7.760363e-07  6.050883e-07   0.001219  0.001219  0.001219    0.999978    4.677052e-04  0.999948      0.000694         0.530142
3    0.009257  2.823021e-03 -0.009257  -0.002823  3.239333e-08  2.525761e-08   0.000373  0.000373  0.000373    0.999973   -8.310728e-05  0.999969     -0.000170         0.161965
4    0.009958  6.083572e-03 -0.009958  -0.006084  7.446421e-08  5.806097e-08   0.000449  0.000449  0.000449    0.999973   -8.310728e-05  0.999964     -0.000136         0.195291
5   -0.012595 -7.613193e-03  0.012696   0.007692  1.013050e-04  7.898916e-05   0.021242  0.021242  0.021242    0.999978    4.636295e-04  1.008646      0.059102         9.235783
6   -0.003451 -4.818500e-04  0.003460   0.000489  9.418209e-06  7.343532e-06   0.005029  0.005029  0.005029    0.999973   -8.585362e-05  1.002943      0.097806         2.186533
7   -0.002942 -2.761106e-03  0.002953   0.002770  1.099809e-05  8.575391e-06   0.005824  0.005824  0.005824    0.999973   -8.585362e-05  1.003415     -0.018115         2.531996
8   -0.006217 -2.050008e-03  0.006224   0.002056  7.367705e-06  5.744721e-06   0.009448  0.009448  0.009448    0.999973   -8.585362e-05  1.001316      0.027435         4.108018
9   -0.013812 -1.397827e-02  0.013812   0.013978  1.335629e-07  1.041412e-07   0.000756  0.000756  0.000756    0.999939    7.572867e-04  0.999948      0.000694         0.328879
10  -0.002571 -4.805868e-03  0.002571   0.004806  1.453009e-08  1.132935e-08   0.000210  0.000210  0.000210    0.999936    8.357922e-04  0.999939      0.000757         0.091216
11   0.006094  2.996369e-03 -0.006094  -0.002996  2.255495e-08  1.758647e-08   0.000261  0.000261  0.000261    0.999964   -1.357751e-04  0.999960     -0.000185         0.113647
12   0.004660  1.323977e-03 -0.004647  -0.001313  1.355996e-05  1.057293e-05   0.006910  0.006910  0.006910    1.011974    1.358087e-01  1.008646      0.059102         3.004399
13   0.002557  1.057141e-03 -0.002552  -0.001053  5.001454e-06  3.899716e-06   0.003950  0.003950  0.003950    1.010879    9.423551e-02  1.008646      0.059102         1.717568
14   0.002694  3.578662e-09 -0.002687   0.000005  6.378270e-06  4.973242e-06   0.003833  0.003833  0.003833    1.014374    2.418483e-01  1.011974      0.135809         1.666388
15  -0.002097  7.992099e-04  0.002103  -0.000794  6.112861e-06  4.766299e-06   0.003235  0.003235  0.003235    1.001316    2.743453e-02  1.003112      0.196404         1.406606
16   0.001063  1.401128e-03 -0.001061  -0.001399  2.667545e-06  2.079929e-06   0.002527  0.002527  0.002527    1.004810    6.948575e-02  1.002943      0.097806         1.098481
--------------------------------------------------

TRAFO:
    p_hv_mw  q_hv_mvar   p_lv_mw  q_lv_mvar    pl_mw  ql_mvar   i_hv_ka   i_lv_ka  vm_hv_pu  va_hv_degree  vm_lv_pu  va_lv_degree  loading_percent
0 -0.012585  -0.006613  0.012595   0.007613  0.00001    0.001  0.000547  0.021242  0.999978      0.000468  0.999978  4.636295e-04         0.147171
1 -0.012599  -0.004293  0.012609   0.005293  0.00001    0.001  0.000512  0.019739  0.999973     -0.000083  0.999973 -8.585362e-05         0.136753
2  0.009732   0.019880 -0.009722  -0.015880  0.00001    0.004  0.000183  0.000717  1.000000      0.000000  1.000000  2.561142e-06         0.055336
3  0.006627   0.008614 -0.006617  -0.004614  0.00001    0.004  0.000090  0.000310  1.000000      0.000000  1.000000  9.473362e-07         0.027169
--------------------------------------------------
